* NGSPICE file created from tempsenseInst_error.ext - technology: sky130A

.subckt HEADER VIN sky130_fd_sc_hd__tap_1_0/VPB sky130_fd_sc_hd__tap_1_1/VPB a_508_138#
+ VGND VPWR VNB
X0 a_508_138# VGND VPWR VNB sky130_fd_pr__nfet_03v3_nvt ad=1.1445e+12p pd=1.167e+07u as=3.92e+11p ps=3.92e+06u w=700000u l=500000u
X1 VIN VGND a_508_138# VNB sky130_fd_pr__nfet_03v3_nvt ad=3.92e+11p pd=3.92e+06u as=0p ps=0u w=700000u l=500000u
X2 VPWR VGND a_508_138# VNB sky130_fd_pr__nfet_03v3_nvt ad=0p pd=0u as=0p ps=0u w=700000u l=500000u
X3 a_508_138# VGND VPWR VNB sky130_fd_pr__nfet_03v3_nvt ad=0p pd=0u as=0p ps=0u w=700000u l=500000u
X4 a_508_138# VGND VIN VNB sky130_fd_pr__nfet_03v3_nvt ad=0p pd=0u as=0p ps=0u w=700000u l=500000u
X5 VPWR VGND a_508_138# VNB sky130_fd_pr__nfet_03v3_nvt ad=0p pd=0u as=0p ps=0u w=700000u l=500000u
X6 a_508_138# VGND VIN VNB sky130_fd_pr__nfet_03v3_nvt ad=0p pd=0u as=0p ps=0u w=700000u l=500000u
X7 VIN VGND a_508_138# VNB sky130_fd_pr__nfet_03v3_nvt ad=0p pd=0u as=0p ps=0u w=700000u l=500000u
C0 VGND a_508_138# 0.56fF
C1 VIN VGND 0.67fF
C2 sky130_fd_sc_hd__tap_1_0/VPB VPWR 0.05fF
C3 sky130_fd_sc_hd__tap_1_1/VPB VPWR 0.07fF
C4 sky130_fd_sc_hd__tap_1_0/VPB a_508_138# 0.00fF
C5 sky130_fd_sc_hd__tap_1_1/VPB a_508_138# 0.00fF
C6 VIN sky130_fd_sc_hd__tap_1_0/VPB 0.00fF
C7 sky130_fd_sc_hd__tap_1_0/VPB VGND 0.04fF
C8 sky130_fd_sc_hd__tap_1_1/VPB VIN 0.00fF
C9 sky130_fd_sc_hd__tap_1_1/VPB VGND 0.02fF
C10 VPWR a_508_138# 0.18fF
C11 VIN VPWR 0.21fF
C12 VPWR VGND 0.56fF
C13 VIN a_508_138# 0.28fF
C14 VIN VNB 0.61fF
C15 a_508_138# VNB 0.11fF
C16 sky130_fd_sc_hd__tap_1_1/VPB VNB 0.31fF
C17 VGND VNB 3.17fF
C18 VPWR VNB 1.59fF
C19 sky130_fd_sc_hd__tap_1_0/VPB VNB 0.32fF
.ends

.subckt sky130_fd_sc_hd__decap_4 VGND VPWR VNB VPB
X0 VPWR VGND VPWR VPB sky130_fd_pr__pfet_01v8_hvt ad=4.524e+11p pd=4.52e+06u as=0p ps=0u w=870000u l=1.05e+06u
X1 VGND VPWR VGND VNB sky130_fd_pr__nfet_01v8 ad=2.86e+11p pd=3.24e+06u as=0p ps=0u w=550000u l=1.05e+06u
C0 VPWR VGND 0.52fF
C1 VPWR VPB 0.07fF
C2 VPB VGND 0.05fF
C3 VPWR VNB 0.61fF
C4 VGND VNB 0.56fF
C5 VPB VNB 0.43fF
.ends

.subckt sky130_fd_sc_hd__or3_1 A X B C VPWR VGND a_29_53# a_183_297# VNB VPB a_111_297#
X0 X a_29_53# VPWR VPB sky130_fd_pr__pfet_01v8_hvt ad=2.8e+11p pd=2.56e+06u as=2.965e+11p ps=2.68e+06u w=1e+06u l=150000u
X1 a_111_297# C a_29_53# VPB sky130_fd_pr__pfet_01v8_hvt ad=8.82e+10p pd=1.26e+06u as=1.092e+11p ps=1.36e+06u w=420000u l=150000u
X2 X a_29_53# VGND VNB sky130_fd_pr__nfet_01v8 ad=1.82e+11p pd=1.86e+06u as=3.1715e+11p ps=3.36e+06u w=650000u l=150000u
X3 a_183_297# B a_111_297# VPB sky130_fd_pr__pfet_01v8_hvt ad=1.386e+11p pd=1.5e+06u as=0p ps=0u w=420000u l=150000u
X4 VPWR A a_183_297# VPB sky130_fd_pr__pfet_01v8_hvt ad=0p pd=0u as=0p ps=0u w=420000u l=150000u
X5 a_29_53# B VGND VNB sky130_fd_pr__nfet_01v8 ad=2.226e+11p pd=2.74e+06u as=0p ps=0u w=420000u l=150000u
X6 VGND C a_29_53# VNB sky130_fd_pr__nfet_01v8 ad=0p pd=0u as=0p ps=0u w=420000u l=150000u
X7 VGND A a_29_53# VNB sky130_fd_pr__nfet_01v8 ad=0p pd=0u as=0p ps=0u w=420000u l=150000u
C0 C VGND 0.01fF
C1 A a_183_297# 0.00fF
C2 A VPB 0.01fF
C3 A a_111_297# 0.00fF
C4 C VPB 0.01fF
C5 a_183_297# VGND 0.00fF
C6 A a_29_53# 0.26fF
C7 VPWR X 0.07fF
C8 VGND VPB 0.01fF
C9 VPWR B 0.11fF
C10 a_111_297# VGND 0.00fF
C11 a_29_53# C 0.06fF
C12 a_29_53# VGND 0.17fF
C13 a_29_53# a_183_297# 0.00fF
C14 A VPWR 0.01fF
C15 a_29_53# VPB 0.02fF
C16 a_29_53# a_111_297# 0.00fF
C17 VPWR C 0.00fF
C18 VPWR VGND 0.05fF
C19 B X 0.00fF
C20 VPWR a_183_297# 0.00fF
C21 VPWR VPB 0.05fF
C22 VPWR a_111_297# 0.00fF
C23 a_29_53# VPWR 0.07fF
C24 A X 0.00fF
C25 A B 0.06fF
C26 C X 0.00fF
C27 B C 0.06fF
C28 X VGND 0.03fF
C29 B VGND 0.01fF
C30 X a_183_297# 0.00fF
C31 B a_183_297# 0.00fF
C32 X VPB 0.01fF
C33 B VPB 0.03fF
C34 A C 0.03fF
C35 a_111_297# X 0.00fF
C36 B a_111_297# 0.00fF
C37 A VGND 0.01fF
C38 a_29_53# X 0.07fF
C39 a_29_53# B 0.10fF
C40 VGND VNB 0.31fF
C41 X VNB 0.09fF
C42 A VNB 0.11fF
C43 C VNB 0.17fF
C44 B VNB 0.13fF
C45 VPWR VNB 0.28fF
C46 VPB VNB 0.52fF
C47 a_29_53# VNB 0.20fF
.ends

.subckt sky130_fd_sc_hd__nor3_1 C Y A B VGND VPWR a_193_297# VNB VPB a_109_297#
X0 VPWR A a_193_297# VPB sky130_fd_pr__pfet_01v8_hvt ad=2.6e+11p pd=2.52e+06u as=2.7e+11p ps=2.54e+06u w=1e+06u l=150000u
X1 a_193_297# B a_109_297# VPB sky130_fd_pr__pfet_01v8_hvt ad=0p pd=0u as=2.7e+11p ps=2.54e+06u w=1e+06u l=150000u
X2 Y B VGND VNB sky130_fd_pr__nfet_01v8 ad=3.445e+11p pd=3.66e+06u as=3.445e+11p ps=3.66e+06u w=650000u l=150000u
X3 VGND A Y VNB sky130_fd_pr__nfet_01v8 ad=0p pd=0u as=0p ps=0u w=650000u l=150000u
X4 a_109_297# C Y VPB sky130_fd_pr__pfet_01v8_hvt ad=0p pd=0u as=2.6e+11p ps=2.52e+06u w=1e+06u l=150000u
X5 VGND C Y VNB sky130_fd_pr__nfet_01v8 ad=0p pd=0u as=0p ps=0u w=650000u l=150000u
C0 VGND a_109_297# 0.00fF
C1 a_193_297# A 0.00fF
C2 B a_109_297# 0.01fF
C3 a_193_297# Y 0.01fF
C4 a_193_297# VPWR 0.00fF
C5 VGND a_193_297# 0.00fF
C6 A C 0.00fF
C7 A Y 0.08fF
C8 a_193_297# B 0.00fF
C9 C Y 0.07fF
C10 A VPWR 0.03fF
C11 VPWR C 0.01fF
C12 VPWR Y 0.13fF
C13 VGND A 0.03fF
C14 VPB A 0.02fF
C15 VGND C 0.01fF
C16 VGND Y 0.12fF
C17 VPB C 0.01fF
C18 VPB Y 0.01fF
C19 VGND VPWR 0.05fF
C20 VPB VPWR 0.04fF
C21 A B 0.06fF
C22 C B 0.08fF
C23 Y B 0.17fF
C24 VPB VGND 0.01fF
C25 A a_109_297# 0.00fF
C26 VPWR B 0.01fF
C27 Y a_109_297# 0.00fF
C28 VPWR a_109_297# 0.00fF
C29 VGND B 0.01fF
C30 VPB B 0.01fF
C31 VGND VNB 0.27fF
C32 VPWR VNB 0.25fF
C33 Y VNB 0.10fF
C34 A VNB 0.19fF
C35 B VNB 0.08fF
C36 C VNB 0.15fF
C37 VPB VNB 0.43fF
.ends

.subckt sky130_fd_sc_hd__inv_1 Y A VGND VPWR VNB VPB
X0 Y A VGND VNB sky130_fd_pr__nfet_01v8 ad=1.69e+11p pd=1.82e+06u as=1.69e+11p ps=1.82e+06u w=650000u l=150000u
X1 Y A VPWR VPB sky130_fd_pr__pfet_01v8_hvt ad=2.6e+11p pd=2.52e+06u as=2.6e+11p ps=2.52e+06u w=1e+06u l=150000u
C0 A VPWR 0.04fF
C1 A Y 0.02fF
C2 Y VPWR 0.11fF
C3 VGND A 0.03fF
C4 VGND VPWR 0.04fF
C5 VGND Y 0.09fF
C6 A VPB 0.02fF
C7 VPWR VPB 0.04fF
C8 Y VPB 0.01fF
C9 VGND VPB 0.01fF
C10 VGND VNB 0.25fF
C11 Y VNB 0.11fF
C12 VPWR VNB 0.24fF
C13 A VNB 0.19fF
C14 VPB VNB 0.34fF
.ends

.subckt sky130_fd_sc_hd__dfrtp_1 Q RESET_B D CLK VGND VPWR a_1462_47# a_543_47# VNB
+ VPB a_651_413# a_193_47# a_805_47# a_448_47# a_639_47# a_1283_21# a_761_289# a_1108_47#
+ a_1217_47# a_1270_413# a_27_47#
X0 a_1217_47# a_27_47# a_1108_47# VNB sky130_fd_pr__nfet_01v8 ad=1.338e+11p pd=1.5e+06u as=1.422e+11p ps=1.51e+06u w=360000u l=150000u
X1 a_805_47# a_761_289# a_639_47# VNB sky130_fd_pr__nfet_01v8 ad=8.82e+10p pd=1.26e+06u as=2.802e+11p ps=2.2e+06u w=420000u l=150000u
X2 a_1108_47# a_193_47# a_761_289# VNB sky130_fd_pr__nfet_01v8 ad=0p pd=0u as=1.998e+11p ps=1.97e+06u w=360000u l=150000u
X3 a_1283_21# a_1108_47# a_1462_47# VNB sky130_fd_pr__nfet_01v8 ad=1.092e+11p pd=1.36e+06u as=1.281e+11p ps=1.45e+06u w=420000u l=150000u
X4 a_651_413# a_27_47# a_543_47# VPB sky130_fd_pr__pfet_01v8_hvt ad=3.402e+11p pd=3.3e+06u as=1.449e+11p ps=1.53e+06u w=420000u l=150000u
X5 VGND RESET_B a_805_47# VNB sky130_fd_pr__nfet_01v8 ad=1.0617e+12p pd=9.62e+06u as=0p ps=0u w=420000u l=150000u
X6 Q a_1283_21# VPWR VPB sky130_fd_pr__pfet_01v8_hvt ad=2.6e+11p pd=2.52e+06u as=1.2195e+12p ps=1.255e+07u w=1e+06u l=150000u
X7 VPWR CLK a_27_47# VPB sky130_fd_pr__pfet_01v8_hvt ad=0p pd=0u as=1.664e+11p ps=1.8e+06u w=640000u l=150000u
X8 a_448_47# D VPWR VPB sky130_fd_pr__pfet_01v8_hvt ad=1.302e+11p pd=1.46e+06u as=0p ps=0u w=420000u l=150000u
X9 a_761_289# a_543_47# VGND VNB sky130_fd_pr__nfet_01v8 ad=0p pd=0u as=0p ps=0u w=640000u l=150000u
X10 a_193_47# a_27_47# VGND VNB sky130_fd_pr__nfet_01v8 ad=1.092e+11p pd=1.36e+06u as=0p ps=0u w=420000u l=150000u
X11 a_1108_47# a_27_47# a_761_289# VPB sky130_fd_pr__pfet_01v8_hvt ad=1.176e+11p pd=1.4e+06u as=2.583e+11p ps=2.37e+06u w=420000u l=150000u
X12 a_543_47# a_27_47# a_448_47# VNB sky130_fd_pr__nfet_01v8 ad=1.188e+11p pd=1.38e+06u as=1.32e+11p ps=1.49e+06u w=360000u l=150000u
X13 a_1462_47# RESET_B VGND VNB sky130_fd_pr__nfet_01v8 ad=0p pd=0u as=0p ps=0u w=420000u l=150000u
X14 a_543_47# a_193_47# a_448_47# VPB sky130_fd_pr__pfet_01v8_hvt ad=0p pd=0u as=0p ps=0u w=420000u l=150000u
X15 a_448_47# D VGND VNB sky130_fd_pr__nfet_01v8 ad=0p pd=0u as=0p ps=0u w=420000u l=150000u
X16 VPWR a_1283_21# a_1270_413# VPB sky130_fd_pr__pfet_01v8_hvt ad=0p pd=0u as=1.134e+11p ps=1.38e+06u w=420000u l=150000u
X17 VPWR a_1108_47# a_1283_21# VPB sky130_fd_pr__pfet_01v8_hvt ad=0p pd=0u as=1.134e+11p ps=1.38e+06u w=420000u l=150000u
X18 a_1270_413# a_193_47# a_1108_47# VPB sky130_fd_pr__pfet_01v8_hvt ad=0p pd=0u as=0p ps=0u w=420000u l=150000u
X19 a_193_47# a_27_47# VPWR VPB sky130_fd_pr__pfet_01v8_hvt ad=1.664e+11p pd=1.8e+06u as=0p ps=0u w=640000u l=150000u
X20 a_1283_21# RESET_B VPWR VPB sky130_fd_pr__pfet_01v8_hvt ad=0p pd=0u as=0p ps=0u w=420000u l=150000u
X21 VPWR a_761_289# a_651_413# VPB sky130_fd_pr__pfet_01v8_hvt ad=0p pd=0u as=0p ps=0u w=420000u l=150000u
X22 Q a_1283_21# VGND VNB sky130_fd_pr__nfet_01v8 ad=1.69e+11p pd=1.82e+06u as=0p ps=0u w=650000u l=150000u
X23 a_639_47# a_193_47# a_543_47# VNB sky130_fd_pr__nfet_01v8 ad=0p pd=0u as=0p ps=0u w=360000u l=150000u
X24 VGND a_1283_21# a_1217_47# VNB sky130_fd_pr__nfet_01v8 ad=0p pd=0u as=0p ps=0u w=420000u l=150000u
X25 a_651_413# RESET_B VPWR VPB sky130_fd_pr__pfet_01v8_hvt ad=0p pd=0u as=0p ps=0u w=420000u l=150000u
X26 VGND CLK a_27_47# VNB sky130_fd_pr__nfet_01v8 ad=0p pd=0u as=1.092e+11p ps=1.36e+06u w=420000u l=150000u
X27 a_761_289# a_543_47# VPWR VPB sky130_fd_pr__pfet_01v8_hvt ad=0p pd=0u as=0p ps=0u w=840000u l=150000u
C0 a_651_413# a_761_289# 0.09fF
C1 Q a_761_289# 0.00fF
C2 a_448_47# a_1270_413# 0.00fF
C3 a_805_47# D 0.00fF
C4 VPB D 0.04fF
C5 a_27_47# a_1270_413# 0.00fF
C6 a_651_413# a_1270_413# 0.00fF
C7 Q a_1270_413# 0.00fF
C8 a_805_47# RESET_B 0.00fF
C9 CLK D 0.00fF
C10 VPB RESET_B 0.06fF
C11 a_805_47# a_543_47# 0.00fF
C12 a_543_47# VPB 0.04fF
C13 a_805_47# a_193_47# 0.00fF
C14 a_761_289# a_1270_413# 0.00fF
C15 a_805_47# a_1283_21# 0.00fF
C16 a_193_47# VPB 0.07fF
C17 VPB a_1283_21# 0.05fF
C18 a_805_47# VPWR 0.00fF
C19 VPB VPWR 0.19fF
C20 CLK RESET_B 0.00fF
C21 a_543_47# CLK 0.00fF
C22 a_805_47# a_1108_47# 0.00fF
C23 D a_1217_47# 0.00fF
C24 a_1108_47# VPB 0.04fF
C25 a_193_47# CLK 0.00fF
C26 CLK a_1283_21# 0.00fF
C27 a_805_47# VGND 0.00fF
C28 CLK VPWR 0.01fF
C29 VPB VGND 0.06fF
C30 D RESET_B 0.00fF
C31 a_543_47# D 0.00fF
C32 a_448_47# a_805_47# 0.00fF
C33 RESET_B a_1217_47# 0.00fF
C34 a_448_47# VPB 0.01fF
C35 a_1108_47# CLK 0.00fF
C36 a_27_47# a_805_47# 0.00fF
C37 a_543_47# a_1217_47# 0.00fF
C38 a_27_47# VPB 0.09fF
C39 a_193_47# D 0.15fF
C40 D a_1283_21# 0.00fF
C41 a_639_47# D 0.00fF
C42 a_193_47# a_1217_47# 0.00fF
C43 a_805_47# a_651_413# 0.00fF
C44 a_1283_21# a_1217_47# 0.00fF
C45 a_651_413# VPB 0.01fF
C46 a_805_47# Q 0.00fF
C47 VPB Q 0.01fF
C48 D VPWR 0.06fF
C49 CLK VGND 0.01fF
C50 a_543_47# RESET_B 0.15fF
C51 VPWR a_1217_47# 0.00fF
C52 a_448_47# CLK 0.00fF
C53 a_1108_47# D 0.00fF
C54 a_27_47# CLK 0.19fF
C55 a_1108_47# a_1217_47# 0.01fF
C56 a_1462_47# D 0.00fF
C57 a_193_47# RESET_B 0.02fF
C58 RESET_B a_1283_21# 0.22fF
C59 a_639_47# RESET_B 0.00fF
C60 a_543_47# a_193_47# 0.16fF
C61 a_543_47# a_1283_21# 0.00fF
C62 a_543_47# a_639_47# 0.01fF
C63 a_805_47# a_761_289# 0.00fF
C64 VPB a_761_289# 0.03fF
C65 a_651_413# CLK 0.00fF
C66 RESET_B VPWR 0.06fF
C67 D VGND 0.05fF
C68 a_543_47# VPWR 0.08fF
C69 a_193_47# a_1283_21# 0.04fF
C70 a_639_47# a_193_47# 0.00fF
C71 VGND a_1217_47# 0.00fF
C72 a_639_47# a_1283_21# 0.00fF
C73 a_1108_47# RESET_B 0.17fF
C74 a_448_47# D 0.12fF
C75 a_543_47# a_1108_47# 0.00fF
C76 a_27_47# D 0.09fF
C77 a_448_47# a_1217_47# 0.00fF
C78 a_1462_47# RESET_B 0.00fF
C79 a_193_47# VPWR 0.40fF
C80 a_543_47# a_1462_47# 0.00fF
C81 VPWR a_1283_21# 0.19fF
C82 a_27_47# a_1217_47# 0.00fF
C83 a_639_47# VPWR 0.00fF
C84 a_1108_47# a_193_47# 0.10fF
C85 a_1108_47# a_1283_21# 0.18fF
C86 CLK a_761_289# 0.00fF
C87 a_639_47# a_1108_47# 0.00fF
C88 a_651_413# D 0.00fF
C89 D Q 0.00fF
C90 RESET_B VGND 0.29fF
C91 a_1462_47# a_193_47# 0.00fF
C92 a_1462_47# a_1283_21# 0.00fF
C93 a_543_47# VGND 0.10fF
C94 Q a_1217_47# 0.00fF
C95 a_1108_47# VPWR 0.14fF
C96 a_448_47# RESET_B 0.00fF
C97 a_448_47# a_543_47# 0.04fF
C98 a_27_47# RESET_B 0.33fF
C99 a_1462_47# VPWR 0.00fF
C100 a_27_47# a_543_47# 0.05fF
C101 a_193_47# VGND 0.05fF
C102 VGND a_1283_21# 0.18fF
C103 a_639_47# VGND 0.00fF
C104 a_1462_47# a_1108_47# 0.00fF
C105 a_448_47# a_193_47# 0.04fF
C106 D a_761_289# 0.00fF
C107 a_448_47# a_1283_21# 0.00fF
C108 a_651_413# RESET_B 0.00fF
C109 a_448_47# a_639_47# 0.00fF
C110 a_27_47# a_193_47# 0.72fF
C111 RESET_B Q 0.00fF
C112 a_543_47# a_651_413# 0.05fF
C113 VPWR VGND 0.09fF
C114 a_27_47# a_1283_21# 0.04fF
C115 a_27_47# a_639_47# 0.00fF
C116 a_1217_47# a_761_289# 0.00fF
C117 a_543_47# Q 0.00fF
C118 a_448_47# VPWR 0.05fF
C119 a_1108_47# VGND 0.11fF
C120 a_27_47# VPWR 0.12fF
C121 a_651_413# a_193_47# 0.01fF
C122 a_651_413# a_1283_21# 0.00fF
C123 a_1462_47# VGND 0.00fF
C124 a_448_47# a_1108_47# 0.00fF
C125 a_639_47# a_651_413# 0.00fF
C126 a_193_47# Q 0.00fF
C127 Q a_1283_21# 0.04fF
C128 D a_1270_413# 0.00fF
C129 a_639_47# Q 0.00fF
C130 a_27_47# a_1108_47# 0.09fF
C131 a_448_47# a_1462_47# 0.00fF
C132 RESET_B a_761_289# 0.13fF
C133 a_651_413# VPWR 0.11fF
C134 a_27_47# a_1462_47# 0.00fF
C135 a_543_47# a_761_289# 0.15fF
C136 VPWR Q 0.07fF
C137 a_651_413# a_1108_47# 0.00fF
C138 a_1108_47# Q 0.00fF
C139 a_448_47# VGND 0.06fF
C140 a_193_47# a_761_289# 0.12fF
C141 a_27_47# VGND 0.23fF
C142 a_1283_21# a_761_289# 0.00fF
C143 a_1462_47# Q 0.00fF
C144 a_639_47# a_761_289# 0.00fF
C145 RESET_B a_1270_413# 0.00fF
C146 a_27_47# a_448_47# 0.07fF
C147 a_543_47# a_1270_413# 0.00fF
C148 VPWR a_761_289# 0.08fF
C149 a_651_413# VGND 0.00fF
C150 VGND Q 0.04fF
C151 a_1108_47# a_761_289# 0.05fF
C152 a_448_47# a_651_413# 0.00fF
C153 a_193_47# a_1270_413# 0.00fF
C154 a_1283_21# a_1270_413# 0.00fF
C155 a_448_47# Q 0.00fF
C156 a_27_47# a_651_413# 0.00fF
C157 a_1462_47# a_761_289# 0.00fF
C158 a_27_47# Q 0.00fF
C159 VPWR a_1270_413# 0.00fF
C160 VGND a_761_289# 0.06fF
C161 a_1108_47# a_1270_413# 0.01fF
C162 a_651_413# Q 0.00fF
C163 VPB CLK 0.02fF
C164 a_448_47# a_761_289# 0.00fF
C165 a_27_47# a_761_289# 0.04fF
C166 VGND a_1270_413# 0.00fF
C167 Q VNB 0.09fF
C168 VGND VNB 1.04fF
C169 VPWR VNB 0.91fF
C170 RESET_B VNB 0.24fF
C171 D VNB 0.14fF
C172 CLK VNB 0.20fF
C173 VPB VNB 1.85fF
C174 a_651_413# VNB 0.00fF
C175 a_448_47# VNB 0.01fF
C176 a_1108_47# VNB 0.14fF
C177 a_1283_21# VNB 0.27fF
C178 a_543_47# VNB 0.14fF
C179 a_761_289# VNB 0.11fF
C180 a_193_47# VNB 0.25fF
C181 a_27_47# VNB 0.41fF
.ends

.subckt sky130_fd_sc_hd__a221oi_4 A2 Y C1 A1 B2 B1 VPWR VGND a_1241_47# VNB VPB a_453_47#
+ a_27_297# a_471_297#
X0 Y A1 a_1241_47# VNB sky130_fd_pr__nfet_01v8 ad=1.053e+12p pd=1.104e+07u as=7.02e+11p ps=7.36e+06u w=650000u l=150000u
X1 a_453_47# B2 VGND VNB sky130_fd_pr__nfet_01v8 ad=1.027e+12p pd=8.36e+06u as=1.2935e+12p ps=1.308e+07u w=650000u l=150000u
X2 Y B1 a_453_47# VNB sky130_fd_pr__nfet_01v8 ad=0p pd=0u as=0p ps=0u w=650000u l=150000u
X3 Y A1 a_1241_47# VNB sky130_fd_pr__nfet_01v8 ad=0p pd=0u as=0p ps=0u w=650000u l=150000u
X4 Y C1 a_27_297# VPB sky130_fd_pr__pfet_01v8_hvt ad=5.4e+11p pd=5.08e+06u as=1.89e+12p ps=1.778e+07u w=1e+06u l=150000u
X5 a_471_297# A2 VPWR VPB sky130_fd_pr__pfet_01v8_hvt ad=2.525e+12p pd=2.305e+07u as=1.08e+12p ps=1.016e+07u w=1e+06u l=150000u
X6 Y B1 a_453_47# VNB sky130_fd_pr__nfet_01v8 ad=0p pd=0u as=0p ps=0u w=650000u l=150000u
X7 VGND A2 a_1241_47# VNB sky130_fd_pr__nfet_01v8 ad=0p pd=0u as=0p ps=0u w=650000u l=150000u
X8 Y C1 VGND VNB sky130_fd_pr__nfet_01v8 ad=0p pd=0u as=0p ps=0u w=650000u l=150000u
X9 a_27_297# C1 Y VPB sky130_fd_pr__pfet_01v8_hvt ad=0p pd=0u as=0p ps=0u w=1e+06u l=150000u
X10 VPWR A2 a_471_297# VPB sky130_fd_pr__pfet_01v8_hvt ad=0p pd=0u as=0p ps=0u w=1e+06u l=150000u
X11 a_453_47# B1 Y VNB sky130_fd_pr__nfet_01v8 ad=0p pd=0u as=0p ps=0u w=650000u l=150000u
X12 a_471_297# B2 a_27_297# VPB sky130_fd_pr__pfet_01v8_hvt ad=0p pd=0u as=0p ps=0u w=1e+06u l=150000u
X13 VGND B2 a_453_47# VNB sky130_fd_pr__nfet_01v8 ad=0p pd=0u as=0p ps=0u w=650000u l=150000u
X14 a_1241_47# A1 Y VNB sky130_fd_pr__nfet_01v8 ad=0p pd=0u as=0p ps=0u w=650000u l=150000u
X15 a_27_297# B2 a_471_297# VPB sky130_fd_pr__pfet_01v8_hvt ad=0p pd=0u as=0p ps=0u w=1e+06u l=150000u
X16 a_453_47# B1 Y VNB sky130_fd_pr__nfet_01v8 ad=0p pd=0u as=0p ps=0u w=650000u l=150000u
X17 a_1241_47# A1 Y VNB sky130_fd_pr__nfet_01v8 ad=0p pd=0u as=0p ps=0u w=650000u l=150000u
X18 VGND C1 Y VNB sky130_fd_pr__nfet_01v8 ad=0p pd=0u as=0p ps=0u w=650000u l=150000u
X19 a_1241_47# A2 VGND VNB sky130_fd_pr__nfet_01v8 ad=0p pd=0u as=0p ps=0u w=650000u l=150000u
X20 Y C1 VGND VNB sky130_fd_pr__nfet_01v8 ad=0p pd=0u as=0p ps=0u w=650000u l=150000u
X21 VGND C1 Y VNB sky130_fd_pr__nfet_01v8 ad=0p pd=0u as=0p ps=0u w=650000u l=150000u
X22 VPWR A2 a_471_297# VPB sky130_fd_pr__pfet_01v8_hvt ad=0p pd=0u as=0p ps=0u w=1e+06u l=150000u
X23 a_471_297# B2 a_27_297# VPB sky130_fd_pr__pfet_01v8_hvt ad=0p pd=0u as=0p ps=0u w=1e+06u l=150000u
X24 a_471_297# A2 VPWR VPB sky130_fd_pr__pfet_01v8_hvt ad=0p pd=0u as=0p ps=0u w=1e+06u l=150000u
X25 a_471_297# B1 a_27_297# VPB sky130_fd_pr__pfet_01v8_hvt ad=0p pd=0u as=0p ps=0u w=1e+06u l=150000u
X26 VPWR A1 a_471_297# VPB sky130_fd_pr__pfet_01v8_hvt ad=0p pd=0u as=0p ps=0u w=1e+06u l=150000u
X27 Y C1 a_27_297# VPB sky130_fd_pr__pfet_01v8_hvt ad=0p pd=0u as=0p ps=0u w=1e+06u l=150000u
X28 a_27_297# B1 a_471_297# VPB sky130_fd_pr__pfet_01v8_hvt ad=0p pd=0u as=0p ps=0u w=1e+06u l=150000u
X29 VGND A2 a_1241_47# VNB sky130_fd_pr__nfet_01v8 ad=0p pd=0u as=0p ps=0u w=650000u l=150000u
X30 a_471_297# A1 VPWR VPB sky130_fd_pr__pfet_01v8_hvt ad=0p pd=0u as=0p ps=0u w=1e+06u l=150000u
X31 a_27_297# B1 a_471_297# VPB sky130_fd_pr__pfet_01v8_hvt ad=0p pd=0u as=0p ps=0u w=1e+06u l=150000u
X32 a_1241_47# A2 VGND VNB sky130_fd_pr__nfet_01v8 ad=0p pd=0u as=0p ps=0u w=650000u l=150000u
X33 a_471_297# B1 a_27_297# VPB sky130_fd_pr__pfet_01v8_hvt ad=0p pd=0u as=0p ps=0u w=1e+06u l=150000u
X34 VPWR A1 a_471_297# VPB sky130_fd_pr__pfet_01v8_hvt ad=0p pd=0u as=0p ps=0u w=1e+06u l=150000u
X35 a_27_297# B2 a_471_297# VPB sky130_fd_pr__pfet_01v8_hvt ad=0p pd=0u as=0p ps=0u w=1e+06u l=150000u
X36 a_471_297# A1 VPWR VPB sky130_fd_pr__pfet_01v8_hvt ad=0p pd=0u as=0p ps=0u w=1e+06u l=150000u
X37 a_27_297# C1 Y VPB sky130_fd_pr__pfet_01v8_hvt ad=0p pd=0u as=0p ps=0u w=1e+06u l=150000u
X38 a_453_47# B2 VGND VNB sky130_fd_pr__nfet_01v8 ad=0p pd=0u as=0p ps=0u w=650000u l=150000u
X39 VGND B2 a_453_47# VNB sky130_fd_pr__nfet_01v8 ad=0p pd=0u as=0p ps=0u w=650000u l=150000u
C0 A1 a_453_47# 0.00fF
C1 a_27_297# a_453_47# 0.00fF
C2 A1 Y 0.10fF
C3 C1 a_1241_47# 0.00fF
C4 a_27_297# Y 0.44fF
C5 B2 B1 0.32fF
C6 VPB B1 0.05fF
C7 A2 C1 0.00fF
C8 A1 a_1241_47# 0.02fF
C9 a_471_297# a_453_47# 0.00fF
C10 a_471_297# Y 0.01fF
C11 C1 VGND 0.06fF
C12 A1 A2 0.33fF
C13 VPWR C1 0.02fF
C14 A2 a_27_297# 0.00fF
C15 a_471_297# a_1241_47# 0.00fF
C16 A1 VGND 0.02fF
C17 a_453_47# Y 0.23fF
C18 a_27_297# VGND 0.02fF
C19 A1 VPWR 0.04fF
C20 VPWR a_27_297# 0.19fF
C21 A2 a_471_297# 0.45fF
C22 a_453_47# a_1241_47# 0.00fF
C23 B2 C1 0.04fF
C24 C1 VPB 0.05fF
C25 a_471_297# VGND 0.02fF
C26 a_1241_47# Y 0.16fF
C27 VPWR a_471_297# 0.74fF
C28 A2 a_453_47# 0.00fF
C29 A1 B2 0.00fF
C30 A2 Y 0.04fF
C31 B2 a_27_297# 0.18fF
C32 A1 VPB 0.05fF
C33 a_27_297# VPB 0.02fF
C34 a_453_47# VGND 0.39fF
C35 Y VGND 0.45fF
C36 VPWR a_453_47# 0.01fF
C37 A2 a_1241_47# 0.10fF
C38 VPWR Y 0.02fF
C39 C1 B1 0.00fF
C40 B2 a_471_297# 0.04fF
C41 a_471_297# VPB 0.02fF
C42 a_1241_47# VGND 0.36fF
C43 VPWR a_1241_47# 0.01fF
C44 A1 B1 0.00fF
C45 a_27_297# B1 0.02fF
C46 A2 VGND 0.06fF
C47 B2 a_453_47# 0.01fF
C48 a_453_47# VPB 0.00fF
C49 B2 Y 0.14fF
C50 A2 VPWR 0.04fF
C51 VPB Y 0.02fF
C52 a_471_297# B1 0.02fF
C53 VPWR VGND 0.21fF
C54 B2 a_1241_47# 0.00fF
C55 a_1241_47# VPB 0.00fF
C56 A2 B2 0.09fF
C57 a_453_47# B1 0.02fF
C58 A2 VPB 0.06fF
C59 Y B1 0.18fF
C60 A1 C1 0.00fF
C61 B2 VGND 0.04fF
C62 C1 a_27_297# 0.05fF
C63 VPB VGND 0.05fF
C64 B2 VPWR 0.02fF
C65 VPWR VPB 0.17fF
C66 a_1241_47# B1 0.00fF
C67 A1 a_27_297# 0.00fF
C68 C1 a_471_297# 0.00fF
C69 A2 B1 0.00fF
C70 VGND B1 0.02fF
C71 A1 a_471_297# 0.02fF
C72 B2 VPB 0.07fF
C73 a_27_297# a_471_297# 0.38fF
C74 VPWR B1 0.02fF
C75 C1 a_453_47# 0.00fF
C76 C1 Y 0.19fF
C77 VGND VNB 1.09fF
C78 VPWR VNB 0.89fF
C79 Y VNB 0.06fF
C80 A1 VNB 0.32fF
C81 A2 VNB 0.39fF
C82 B1 VNB 0.32fF
C83 B2 VNB 0.39fF
C84 C1 VNB 0.39fF
C85 VPB VNB 1.93fF
C86 a_1241_47# VNB 0.01fF
C87 a_453_47# VNB 0.01fF
C88 a_471_297# VNB 0.06fF
C89 a_27_297# VNB 0.07fF
.ends

.subckt sky130_fd_sc_hd__nor2_1 B Y A VGND VPWR VNB VPB a_109_297#
X0 VPWR A a_109_297# VPB sky130_fd_pr__pfet_01v8_hvt ad=2.6e+11p pd=2.52e+06u as=2.1e+11p ps=2.42e+06u w=1e+06u l=150000u
X1 VGND A Y VNB sky130_fd_pr__nfet_01v8 ad=3.38e+11p pd=3.64e+06u as=1.755e+11p ps=1.84e+06u w=650000u l=150000u
X2 a_109_297# B Y VPB sky130_fd_pr__pfet_01v8_hvt ad=0p pd=0u as=2.6e+11p ps=2.52e+06u w=1e+06u l=150000u
X3 Y B VGND VNB sky130_fd_pr__nfet_01v8 ad=0p pd=0u as=0p ps=0u w=650000u l=150000u
C0 VPB B 0.02fF
C1 VPWR VGND 0.04fF
C2 VPWR Y 0.08fF
C3 VPB VGND 0.01fF
C4 A VPWR 0.05fF
C5 VPB Y 0.01fF
C6 VPB A 0.02fF
C7 a_109_297# VPWR 0.00fF
C8 VGND B 0.03fF
C9 B Y 0.06fF
C10 A B 0.06fF
C11 VGND Y 0.14fF
C12 A VGND 0.03fF
C13 A Y 0.03fF
C14 a_109_297# VGND 0.00fF
C15 VPB VPWR 0.04fF
C16 a_109_297# Y 0.00fF
C17 VPWR B 0.01fF
C18 VGND VNB 0.27fF
C19 VPWR VNB 0.23fF
C20 Y VNB 0.08fF
C21 A VNB 0.16fF
C22 B VNB 0.15fF
C23 VPB VNB 0.34fF
.ends

.subckt sky130_fd_sc_hd__or2b_1 A B_N X VGND VPWR VNB VPB a_27_53# a_219_297# a_301_297#
X0 a_219_297# a_27_53# VGND VNB sky130_fd_pr__nfet_01v8 ad=1.134e+11p pd=1.38e+06u as=5.1875e+11p ps=4.32e+06u w=420000u l=150000u
X1 VGND B_N a_27_53# VNB sky130_fd_pr__nfet_01v8 ad=0p pd=0u as=1.092e+11p ps=1.36e+06u w=420000u l=150000u
X2 VPWR A a_301_297# VPB sky130_fd_pr__pfet_01v8_hvt ad=4.057e+11p pd=4.04e+06u as=8.82e+10p ps=1.26e+06u w=420000u l=150000u
X3 X a_219_297# VGND VNB sky130_fd_pr__nfet_01v8 ad=1.755e+11p pd=1.84e+06u as=0p ps=0u w=650000u l=150000u
X4 a_301_297# a_27_53# a_219_297# VPB sky130_fd_pr__pfet_01v8_hvt ad=0p pd=0u as=1.092e+11p ps=1.36e+06u w=420000u l=150000u
X5 X a_219_297# VPWR VPB sky130_fd_pr__pfet_01v8_hvt ad=2.7e+11p pd=2.54e+06u as=0p ps=0u w=1e+06u l=150000u
X6 a_27_53# B_N VPWR VPB sky130_fd_pr__pfet_01v8_hvt ad=1.176e+11p pd=1.4e+06u as=0p ps=0u w=420000u l=150000u
X7 VGND A a_219_297# VNB sky130_fd_pr__nfet_01v8 ad=0p pd=0u as=0p ps=0u w=420000u l=150000u
C0 B_N X 0.00fF
C1 a_27_53# a_301_297# 0.00fF
C2 VGND a_27_53# 0.10fF
C3 a_27_53# a_219_297# 0.08fF
C4 VPB a_27_53# 0.02fF
C5 VPWR a_301_297# 0.00fF
C6 A a_27_53# 0.11fF
C7 VGND VPWR 0.07fF
C8 VPWR a_219_297# 0.06fF
C9 VPB VPWR 0.07fF
C10 A VPWR 0.14fF
C11 B_N a_27_53# 0.08fF
C12 B_N VPWR 0.03fF
C13 a_27_53# X 0.00fF
C14 VGND a_301_297# 0.00fF
C15 VPWR X 0.07fF
C16 a_301_297# a_219_297# 0.00fF
C17 VGND a_219_297# 0.10fF
C18 VGND VPB 0.02fF
C19 A a_301_297# 0.00fF
C20 VGND A 0.01fF
C21 VPB a_219_297# 0.02fF
C22 A a_219_297# 0.12fF
C23 A VPB 0.04fF
C24 VGND B_N 0.01fF
C25 B_N a_219_297# 0.00fF
C26 a_27_53# VPWR 0.03fF
C27 B_N VPB 0.02fF
C28 B_N A 0.00fF
C29 a_301_297# X 0.00fF
C30 VGND X 0.03fF
C31 a_219_297# X 0.06fF
C32 VPB X 0.01fF
C33 A X 0.00fF
C34 VGND VNB 0.36fF
C35 X VNB 0.09fF
C36 B_N VNB 0.17fF
C37 A VNB 0.18fF
C38 VPWR VNB 0.36fF
C39 VPB VNB 0.60fF
C40 a_27_53# VNB 0.16fF
C41 a_219_297# VNB 0.15fF
.ends

.subckt sky130_fd_sc_hd__mux4_1 S0 A1 X S1 A2 A0 A3 VGND VPWR a_1290_413# a_757_363#
+ a_1478_413# a_277_47# VNB VPB a_750_97# a_27_413# a_923_363# a_193_47# a_834_97#
+ a_247_21# a_668_97# a_193_413# a_27_47#
X0 a_277_47# a_247_21# a_27_413# VPB sky130_fd_pr__pfet_01v8_hvt ad=2.226e+11p pd=2.74e+06u as=2.184e+11p ps=2.72e+06u w=420000u l=150000u
X1 VGND S0 a_247_21# VNB sky130_fd_pr__nfet_01v8 ad=6.142e+11p pd=7.3e+06u as=1.092e+11p ps=1.36e+06u w=420000u l=150000u
X2 a_834_97# a_247_21# a_750_97# VNB sky130_fd_pr__nfet_01v8 ad=2.1715e+11p pd=2.72e+06u as=2.226e+11p ps=2.74e+06u w=420000u l=150000u
X3 VGND A3 a_668_97# VNB sky130_fd_pr__nfet_01v8 ad=0p pd=0u as=2.171e+11p ps=2.72e+06u w=420000u l=150000u
X4 a_1290_413# S1 VPWR VPB sky130_fd_pr__pfet_01v8_hvt ad=1.092e+11p pd=1.36e+06u as=7.039e+11p ps=8e+06u w=420000u l=150000u
X5 a_834_97# A2 VGND VNB sky130_fd_pr__nfet_01v8 ad=0p pd=0u as=0p ps=0u w=420000u l=150000u
X6 a_750_97# S0 a_757_363# VPB sky130_fd_pr__pfet_01v8_hvt ad=3.822e+11p pd=3.5e+06u as=2.171e+11p ps=2.72e+06u w=420000u l=150000u
X7 a_27_47# S0 a_277_47# VNB sky130_fd_pr__nfet_01v8 ad=2.184e+11p pd=2.72e+06u as=2.7965e+11p ps=3.21e+06u w=420000u l=150000u
X8 X a_1478_413# VGND VNB sky130_fd_pr__nfet_01v8 ad=1.69e+11p pd=1.82e+06u as=0p ps=0u w=650000u l=150000u
X9 VPWR A1 a_27_413# VPB sky130_fd_pr__pfet_01v8_hvt ad=0p pd=0u as=0p ps=0u w=420000u l=150000u
X10 VPWR S0 a_247_21# VPB sky130_fd_pr__pfet_01v8_hvt ad=0p pd=0u as=1.083e+11p ps=1.36e+06u w=420000u l=150000u
X11 X a_1478_413# VPWR VPB sky130_fd_pr__pfet_01v8_hvt ad=2.6e+11p pd=2.52e+06u as=0p ps=0u w=1e+06u l=150000u
X12 a_193_47# A0 VGND VNB sky130_fd_pr__nfet_01v8 ad=1.134e+11p pd=1.38e+06u as=0p ps=0u w=420000u l=150000u
X13 a_750_97# a_1290_413# a_1478_413# VPB sky130_fd_pr__pfet_01v8_hvt ad=0p pd=0u as=1.84175e+11p ps=1.98e+06u w=420000u l=150000u
X14 a_1478_413# S1 a_277_47# VPB sky130_fd_pr__pfet_01v8_hvt ad=0p pd=0u as=0p ps=0u w=420000u l=150000u
X15 a_1290_413# S1 VGND VNB sky130_fd_pr__nfet_01v8 ad=1.092e+11p pd=1.36e+06u as=0p ps=0u w=420000u l=150000u
X16 a_277_47# a_247_21# a_193_47# VNB sky130_fd_pr__nfet_01v8 ad=0p pd=0u as=0p ps=0u w=420000u l=150000u
X17 a_750_97# S0 a_668_97# VNB sky130_fd_pr__nfet_01v8 ad=0p pd=0u as=0p ps=0u w=420000u l=150000u
X18 a_923_363# a_247_21# a_750_97# VPB sky130_fd_pr__pfet_01v8_hvt ad=1.8025e+11p pd=1.99e+06u as=0p ps=0u w=420000u l=150000u
X19 a_757_363# A2 VPWR VPB sky130_fd_pr__pfet_01v8_hvt ad=0p pd=0u as=0p ps=0u w=420000u l=150000u
X20 VPWR A3 a_923_363# VPB sky130_fd_pr__pfet_01v8_hvt ad=0p pd=0u as=0p ps=0u w=420000u l=150000u
X21 a_277_47# a_1290_413# a_1478_413# VNB sky130_fd_pr__nfet_01v8 ad=0p pd=0u as=3.0205e+11p ps=2.57e+06u w=420000u l=150000u
X22 a_193_413# A0 VPWR VPB sky130_fd_pr__pfet_01v8_hvt ad=2.171e+11p pd=2.72e+06u as=0p ps=0u w=420000u l=150000u
X23 a_193_413# S0 a_277_47# VPB sky130_fd_pr__pfet_01v8_hvt ad=0p pd=0u as=0p ps=0u w=420000u l=150000u
X24 VGND A1 a_27_47# VNB sky130_fd_pr__nfet_01v8 ad=0p pd=0u as=0p ps=0u w=420000u l=150000u
X25 a_1478_413# S1 a_750_97# VNB sky130_fd_pr__nfet_01v8 ad=0p pd=0u as=0p ps=0u w=420000u l=150000u
C0 a_247_21# a_834_97# 0.02fF
C1 X VGND 0.04fF
C2 A2 VPWR 0.01fF
C3 S1 A0 0.00fF
C4 A1 S0 0.00fF
C5 a_757_363# VGND 0.00fF
C6 A3 a_193_413# 0.00fF
C7 X a_750_97# 0.00fF
C8 VGND a_27_413# 0.00fF
C9 A2 VPB 0.02fF
C10 A1 a_277_47# 0.00fF
C11 A2 a_1478_413# 0.00fF
C12 a_757_363# a_750_97# 0.10fF
C13 a_27_413# a_750_97# 0.00fF
C14 a_757_363# A0 0.00fF
C15 a_668_97# a_193_47# 0.00fF
C16 A0 a_27_413# 0.06fF
C17 S0 a_247_21# 0.28fF
C18 VPWR a_193_47# 0.00fF
C19 a_247_21# a_277_47# 0.31fF
C20 a_668_97# S1 0.00fF
C21 A2 a_27_47# 0.00fF
C22 A2 a_1290_413# 0.00fF
C23 a_193_47# a_1478_413# 0.00fF
C24 S1 VPWR 0.03fF
C25 a_668_97# X 0.00fF
C26 A1 A3 0.00fF
C27 A2 a_193_413# 0.00fF
C28 S1 VPB 0.06fF
C29 a_757_363# a_668_97# 0.00fF
C30 S1 a_1478_413# 0.00fF
C31 VPWR X 0.04fF
C32 a_757_363# VPWR 0.20fF
C33 VPB X 0.01fF
C34 S0 a_834_97# 0.00fF
C35 VPWR a_27_413# 0.07fF
C36 a_193_47# a_27_47# 0.00fF
C37 A3 a_247_21# 0.06fF
C38 X a_1478_413# 0.07fF
C39 a_1290_413# a_193_47# 0.00fF
C40 a_923_363# X 0.00fF
C41 a_757_363# VPB 0.02fF
C42 a_834_97# a_277_47# 0.02fF
C43 a_757_363# a_1478_413# 0.00fF
C44 VPB a_27_413# 0.01fF
C45 a_757_363# a_923_363# 0.01fF
C46 a_27_413# a_1478_413# 0.00fF
C47 a_193_413# a_193_47# 0.00fF
C48 a_923_363# a_27_413# 0.00fF
C49 S1 a_27_47# 0.00fF
C50 S1 a_1290_413# 0.12fF
C51 A1 A2 0.00fF
C52 S1 a_193_413# 0.00fF
C53 X a_27_47# 0.00fF
C54 a_1290_413# X 0.00fF
C55 S0 a_277_47# 0.01fF
C56 a_757_363# a_1290_413# 0.01fF
C57 VGND a_750_97# 0.05fF
C58 a_27_413# a_27_47# 0.01fF
C59 a_193_413# X 0.00fF
C60 a_1290_413# a_27_413# 0.00fF
C61 A3 a_834_97# 0.04fF
C62 A0 VGND 0.01fF
C63 A2 a_247_21# 0.00fF
C64 a_757_363# a_193_413# 0.00fF
C65 a_193_413# a_27_413# 0.07fF
C66 A0 a_750_97# 0.00fF
C67 A1 S1 0.00fF
C68 S0 A3 0.00fF
C69 a_247_21# a_193_47# 0.00fF
C70 A3 a_277_47# 0.00fF
C71 a_668_97# VGND 0.18fF
C72 A1 a_757_363# 0.00fF
C73 a_668_97# a_750_97# 0.06fF
C74 A2 a_834_97# 0.05fF
C75 VPWR VGND 0.09fF
C76 S1 a_247_21# 0.00fF
C77 A1 a_27_413# 0.03fF
C78 a_668_97# A0 0.00fF
C79 VPB VGND 0.06fF
C80 VPWR a_750_97# 0.23fF
C81 VGND a_1478_413# 0.15fF
C82 a_923_363# VGND 0.00fF
C83 a_247_21# X 0.00fF
C84 A0 VPWR 0.01fF
C85 VPB a_750_97# 0.04fF
C86 a_757_363# a_247_21# 0.01fF
C87 a_1478_413# a_750_97# 0.12fF
C88 a_923_363# a_750_97# 0.00fF
C89 a_247_21# a_27_413# 0.00fF
C90 A0 VPB 0.03fF
C91 S0 A2 0.00fF
C92 A0 a_1478_413# 0.00fF
C93 a_193_47# a_834_97# 0.00fF
C94 A2 a_277_47# 0.00fF
C95 VGND a_27_47# 0.18fF
C96 a_1290_413# VGND 0.07fF
C97 S1 a_834_97# 0.00fF
C98 a_750_97# a_27_47# 0.00fF
C99 a_1290_413# a_750_97# 0.13fF
C100 a_193_413# VGND 0.00fF
C101 a_668_97# VPWR 0.00fF
C102 A0 a_27_47# 0.03fF
C103 A0 a_1290_413# 0.00fF
C104 X a_834_97# 0.00fF
C105 a_668_97# VPB 0.00fF
C106 a_193_413# a_750_97# 0.00fF
C107 a_668_97# a_1478_413# 0.00fF
C108 a_668_97# a_923_363# 0.00fF
C109 a_193_47# a_277_47# 0.00fF
C110 a_757_363# a_834_97# 0.01fF
C111 A0 a_193_413# 0.00fF
C112 VPWR VPB 0.20fF
C113 S0 S1 0.00fF
C114 A3 A2 0.15fF
C115 VPWR a_1478_413# 0.16fF
C116 VPWR a_923_363# 0.00fF
C117 S1 a_277_47# 0.01fF
C118 VPB a_1478_413# 0.04fF
C119 S0 X 0.00fF
C120 a_923_363# a_1478_413# 0.00fF
C121 a_668_97# a_27_47# 0.00fF
C122 a_668_97# a_1290_413# 0.00fF
C123 a_757_363# S0 0.02fF
C124 X a_277_47# 0.00fF
C125 A1 VGND 0.01fF
C126 S0 a_27_413# 0.00fF
C127 a_757_363# a_277_47# 0.00fF
C128 VPWR a_27_47# 0.01fF
C129 VPWR a_1290_413# 0.08fF
C130 a_27_413# a_277_47# 0.05fF
C131 A1 a_750_97# 0.00fF
C132 VPB a_27_47# 0.01fF
C133 A1 A0 0.14fF